! Blank file in which we can put "overrides" for parameters
#override DT = 1000000.0
#override DT_FORCING = 86400.0
#override DT_THERM = 86400.0
U_TRUNC_FILE = "U_truncations"
V_TRUNC_FILE = "V_truncations"
REPORT_UNUSED_PARAMS = True
FATAL_UNUSED_PARAMS = True
! LAYOUT = 2,4
! DEBUG = True
! DEBUG_TRUNCATIONS = True
#override DAYMAX = 20
