! Blank file in which we can put "overrides" for parameters
U_TRUNC_FILE = "U_truncations"
V_TRUNC_FILE = "V_truncations"
REPORT_UNUSED_PARAMS = True
FATAL_UNUSED_PARAMS = True
! LAYOUT = 2,4
! DEBUG = True
! DEBUG_TRUNCATIONS = True
#override DAYMAX = 20
